
Note: No compatibility mode selected!


Circuit: Two-Stage CMOS Op-Amp

Doing analysis at TEMP = 27.000000 and TNOM = 27.000000


No. of Data Rows : 1
n_d2 = 3.328068e+00
n_d3 = 3.328068e+00
n_m1 = 3.922734e+00
n_tail = 8.458424e-01
vbias_n = 1.500000e+00
vbias_n#branch = 0.000000e+00
vbias_p = 3.500000e+00
vbias_p#branch = 0.000000e+00
vdd = 5.000000e+00
vdd#branch = -1.98547e-03
vin_n = 2.500000e+00
vin_n#branch = 0.000000e+00
vin_p = 2.500000e+00
vin_p#branch = 0.000000e+00
vout = 9.054408e-02
Doing analysis at TEMP = 27.000000 and TNOM = 27.000000


No. of Data Rows : 1001
                             Two-Stage CMOS Op-Amp
                             AC Analysis  Sun Dec 14 21:36:13  2025
--------------------------------------------------------------------------------
Index   frequency       vout                            
--------------------------------------------------------------------------------
0	1.000000e-01	-1.17013e+00,	1.184633e-07	
1	1.023293e-01	-1.17013e+00,	1.212227e-07	
2	1.047129e-01	-1.17013e+00,	1.240463e-07	
3	1.071519e-01	-1.17013e+00,	1.269357e-07	
4	1.096478e-01	-1.17013e+00,	1.298924e-07	
5	1.122018e-01	-1.17013e+00,	1.329180e-07	
6	1.148154e-01	-1.17013e+00,	1.360141e-07	
7	1.174898e-01	-1.17013e+00,	1.391822e-07	
8	1.202264e-01	-1.17013e+00,	1.424242e-07	
9	1.230269e-01	-1.17013e+00,	1.457417e-07	
10	1.258925e-01	-1.17013e+00,	1.491364e-07	
11	1.288250e-01	-1.17013e+00,	1.526103e-07	
12	1.318257e-01	-1.17013e+00,	1.561650e-07	
13	1.348963e-01	-1.17013e+00,	1.598026e-07	
14	1.380384e-01	-1.17013e+00,	1.635249e-07	
15	1.412538e-01	-1.17013e+00,	1.673338e-07	
16	1.445440e-01	-1.17013e+00,	1.712316e-07	
17	1.479108e-01	-1.17013e+00,	1.752200e-07	
18	1.513561e-01	-1.17013e+00,	1.793014e-07	
19	1.548817e-01	-1.17013e+00,	1.834779e-07	
20	1.584893e-01	-1.17013e+00,	1.877517e-07	
21	1.621810e-01	-1.17013e+00,	1.921250e-07	
22	1.659587e-01	-1.17013e+00,	1.966001e-07	
23	1.698244e-01	-1.17013e+00,	2.011795e-07	
24	1.737801e-01	-1.17013e+00,	2.058656e-07	
25	1.778279e-01	-1.17013e+00,	2.106608e-07	
26	1.819701e-01	-1.17013e+00,	2.155678e-07	
27	1.862087e-01	-1.17013e+00,	2.205890e-07	
28	1.905461e-01	-1.17013e+00,	2.257271e-07	
29	1.949845e-01	-1.17013e+00,	2.309850e-07	
30	1.995262e-01	-1.17013e+00,	2.363653e-07	
31	2.041738e-01	-1.17013e+00,	2.418710e-07	
32	2.089296e-01	-1.17013e+00,	2.475049e-07	
33	2.137962e-01	-1.17013e+00,	2.532700e-07	
34	2.187762e-01	-1.17013e+00,	2.591694e-07	
35	2.238721e-01	-1.17013e+00,	2.652063e-07	
36	2.290868e-01	-1.17013e+00,	2.713837e-07	
37	2.344229e-01	-1.17013e+00,	2.777051e-07	
38	2.398833e-01	-1.17013e+00,	2.841736e-07	
39	2.454709e-01	-1.17013e+00,	2.907929e-07	
40	2.511886e-01	-1.17013e+00,	2.975663e-07	
41	2.570396e-01	-1.17013e+00,	3.044975e-07	
42	2.630268e-01	-1.17013e+00,	3.115902e-07	
43	2.691535e-01	-1.17013e+00,	3.188481e-07	
44	2.754229e-01	-1.17013e+00,	3.262750e-07	
45	2.818383e-01	-1.17013e+00,	3.338749e-07	
46	2.884032e-01	-1.17013e+00,	3.416519e-07	
47	2.951209e-01	-1.17013e+00,	3.496100e-07	
48	3.019952e-01	-1.17013e+00,	3.577534e-07	
49	3.090295e-01	-1.17013e+00,	3.660866e-07	
50	3.162278e-01	-1.17013e+00,	3.746138e-07	
51	3.235937e-01	-1.17013e+00,	3.833397e-07	
52	3.311311e-01	-1.17013e+00,	3.922688e-07	
53	3.388442e-01	-1.17013e+00,	4.014059e-07	
54	3.467369e-01	-1.17013e+00,	4.107559e-07	

Index   frequency       vout                            
--------------------------------------------------------------------------------
55	3.548134e-01	-1.17013e+00,	4.203236e-07	
56	3.630781e-01	-1.17013e+00,	4.301142e-07	
57	3.715352e-01	-1.17013e+00,	4.401329e-07	
58	3.801894e-01	-1.17013e+00,	4.503849e-07	
59	3.890451e-01	-1.17013e+00,	4.608757e-07	
60	3.981072e-01	-1.17013e+00,	4.716109e-07	
61	4.073803e-01	-1.17013e+00,	4.825961e-07	
62	4.168694e-01	-1.17013e+00,	4.938372e-07	
63	4.265795e-01	-1.17013e+00,	5.053401e-07	
64	4.365158e-01	-1.17013e+00,	5.171110e-07	
65	4.466836e-01	-1.17013e+00,	5.291561e-07	
66	4.570882e-01	-1.17013e+00,	5.414817e-07	
67	4.677351e-01	-1.17013e+00,	5.540944e-07	
68	4.786301e-01	-1.17013e+00,	5.670010e-07	
69	4.897788e-01	-1.17013e+00,	5.802081e-07	
70	5.011872e-01	-1.17013e+00,	5.937229e-07	
71	5.128614e-01	-1.17013e+00,	6.075525e-07	
72	5.248075e-01	-1.17013e+00,	6.217042e-07	
73	5.370318e-01	-1.17013e+00,	6.361855e-07	
74	5.495409e-01	-1.17013e+00,	6.510042e-07	
75	5.623413e-01	-1.17013e+00,	6.661680e-07	
76	5.754399e-01	-1.17013e+00,	6.816851e-07	
77	5.888437e-01	-1.17013e+00,	6.975636e-07	
78	6.025596e-01	-1.17013e+00,	7.138119e-07	
79	6.165950e-01	-1.17013e+00,	7.304387e-07	
80	6.309573e-01	-1.17013e+00,	7.474528e-07	
81	6.456542e-01	-1.17013e+00,	7.648633e-07	
82	6.606934e-01	-1.17013e+00,	7.826792e-07	
83	6.760830e-01	-1.17013e+00,	8.009101e-07	
84	6.918310e-01	-1.17013e+00,	8.195657e-07	
85	7.079458e-01	-1.17013e+00,	8.386559e-07	
86	7.244360e-01	-1.17013e+00,	8.581907e-07	
87	7.413102e-01	-1.17013e+00,	8.781805e-07	
88	7.585776e-01	-1.17013e+00,	8.986360e-07	
89	7.762471e-01	-1.17013e+00,	9.195679e-07	
90	7.943282e-01	-1.17013e+00,	9.409874e-07	
91	8.128305e-01	-1.17013e+00,	9.629058e-07	
92	8.317638e-01	-1.17013e+00,	9.853347e-07	
93	8.511380e-01	-1.17013e+00,	1.008286e-06	
94	8.709636e-01	-1.17013e+00,	1.031772e-06	
95	8.912509e-01	-1.17013e+00,	1.055805e-06	
96	9.120108e-01	-1.17013e+00,	1.080398e-06	
97	9.332543e-01	-1.17013e+00,	1.105564e-06	
98	9.549926e-01	-1.17013e+00,	1.131316e-06	
99	9.772372e-01	-1.17013e+00,	1.157667e-06	
100	1.000000e+00	-1.17013e+00,	1.184633e-06	
101	1.023293e+00	-1.17013e+00,	1.212227e-06	
102	1.047129e+00	-1.17013e+00,	1.240463e-06	
103	1.071519e+00	-1.17013e+00,	1.269357e-06	
104	1.096478e+00	-1.17013e+00,	1.298924e-06	
105	1.122018e+00	-1.17013e+00,	1.329180e-06	
106	1.148154e+00	-1.17013e+00,	1.360141e-06	
107	1.174898e+00	-1.17013e+00,	1.391822e-06	
108	1.202264e+00	-1.17013e+00,	1.424242e-06	
109	1.230269e+00	-1.17013e+00,	1.457417e-06	
110	1.258925e+00	-1.17013e+00,	1.491364e-06	
111	1.288250e+00	-1.17013e+00,	1.526103e-06	
112	1.318257e+00	-1.17013e+00,	1.561650e-06	

Index   frequency       vout                            
--------------------------------------------------------------------------------
113	1.348963e+00	-1.17013e+00,	1.598026e-06	
114	1.380384e+00	-1.17013e+00,	1.635249e-06	
115	1.412538e+00	-1.17013e+00,	1.673338e-06	
116	1.445440e+00	-1.17013e+00,	1.712316e-06	
117	1.479108e+00	-1.17013e+00,	1.752200e-06	
118	1.513561e+00	-1.17013e+00,	1.793014e-06	
119	1.548817e+00	-1.17013e+00,	1.834779e-06	
120	1.584893e+00	-1.17013e+00,	1.877517e-06	
121	1.621810e+00	-1.17013e+00,	1.921250e-06	
122	1.659587e+00	-1.17013e+00,	1.966001e-06	
123	1.698244e+00	-1.17013e+00,	2.011795e-06	
124	1.737801e+00	-1.17013e+00,	2.058656e-06	
125	1.778279e+00	-1.17013e+00,	2.106608e-06	
126	1.819701e+00	-1.17013e+00,	2.155678e-06	
127	1.862087e+00	-1.17013e+00,	2.205890e-06	
128	1.905461e+00	-1.17013e+00,	2.257271e-06	
129	1.949845e+00	-1.17013e+00,	2.309850e-06	
130	1.995262e+00	-1.17013e+00,	2.363653e-06	
131	2.041738e+00	-1.17013e+00,	2.418710e-06	
132	2.089296e+00	-1.17013e+00,	2.475049e-06	
133	2.137962e+00	-1.17013e+00,	2.532700e-06	
134	2.187762e+00	-1.17013e+00,	2.591694e-06	
135	2.238721e+00	-1.17013e+00,	2.652063e-06	
136	2.290868e+00	-1.17013e+00,	2.713837e-06	
137	2.344229e+00	-1.17013e+00,	2.777051e-06	
138	2.398833e+00	-1.17013e+00,	2.841736e-06	
139	2.454709e+00	-1.17013e+00,	2.907929e-06	
140	2.511886e+00	-1.17013e+00,	2.975663e-06	
141	2.570396e+00	-1.17013e+00,	3.044975e-06	
142	2.630268e+00	-1.17013e+00,	3.115902e-06	
143	2.691535e+00	-1.17013e+00,	3.188481e-06	
144	2.754229e+00	-1.17013e+00,	3.262750e-06	
145	2.818383e+00	-1.17013e+00,	3.338749e-06	
146	2.884032e+00	-1.17013e+00,	3.416519e-06	
147	2.951209e+00	-1.17013e+00,	3.496100e-06	
148	3.019952e+00	-1.17013e+00,	3.577534e-06	
149	3.090295e+00	-1.17013e+00,	3.660866e-06	
150	3.162278e+00	-1.17013e+00,	3.746138e-06	
151	3.235937e+00	-1.17013e+00,	3.833397e-06	
152	3.311311e+00	-1.17013e+00,	3.922688e-06	
153	3.388442e+00	-1.17013e+00,	4.014059e-06	
154	3.467369e+00	-1.17013e+00,	4.107559e-06	
155	3.548134e+00	-1.17013e+00,	4.203236e-06	
156	3.630781e+00	-1.17013e+00,	4.301142e-06	
157	3.715352e+00	-1.17013e+00,	4.401329e-06	
158	3.801894e+00	-1.17013e+00,	4.503849e-06	
159	3.890451e+00	-1.17013e+00,	4.608757e-06	
160	3.981072e+00	-1.17013e+00,	4.716109e-06	
161	4.073803e+00	-1.17013e+00,	4.825961e-06	
162	4.168694e+00	-1.17013e+00,	4.938372e-06	
163	4.265795e+00	-1.17013e+00,	5.053401e-06	
164	4.365158e+00	-1.17013e+00,	5.171110e-06	
165	4.466836e+00	-1.17013e+00,	5.291561e-06	
166	4.570882e+00	-1.17013e+00,	5.414817e-06	
167	4.677351e+00	-1.17013e+00,	5.540944e-06	
168	4.786301e+00	-1.17013e+00,	5.670010e-06	
169	4.897788e+00	-1.17013e+00,	5.802081e-06	
170	5.011872e+00	-1.17013e+00,	5.937229e-06	

Index   frequency       vout                            
--------------------------------------------------------------------------------
171	5.128614e+00	-1.17013e+00,	6.075525e-06	
172	5.248075e+00	-1.17013e+00,	6.217042e-06	
173	5.370318e+00	-1.17013e+00,	6.361855e-06	
174	5.495409e+00	-1.17013e+00,	6.510042e-06	
175	5.623413e+00	-1.17013e+00,	6.661680e-06	
176	5.754399e+00	-1.17013e+00,	6.816851e-06	
177	5.888437e+00	-1.17013e+00,	6.975636e-06	
178	6.025596e+00	-1.17013e+00,	7.138119e-06	
179	6.165950e+00	-1.17013e+00,	7.304387e-06	
180	6.309573e+00	-1.17013e+00,	7.474528e-06	
181	6.456542e+00	-1.17013e+00,	7.648632e-06	
182	6.606934e+00	-1.17013e+00,	7.826792e-06	
183	6.760830e+00	-1.17013e+00,	8.009101e-06	
184	6.918310e+00	-1.17013e+00,	8.195657e-06	
185	7.079458e+00	-1.17013e+00,	8.386559e-06	
186	7.244360e+00	-1.17013e+00,	8.581907e-06	
187	7.413102e+00	-1.17013e+00,	8.781805e-06	
188	7.585776e+00	-1.17013e+00,	8.986360e-06	
189	7.762471e+00	-1.17013e+00,	9.195679e-06	
190	7.943282e+00	-1.17013e+00,	9.409874e-06	
191	8.128305e+00	-1.17013e+00,	9.629058e-06	
192	8.317638e+00	-1.17013e+00,	9.853347e-06	
193	8.511380e+00	-1.17013e+00,	1.008286e-05	
194	8.709636e+00	-1.17013e+00,	1.031772e-05	
195	8.912509e+00	-1.17013e+00,	1.055805e-05	
196	9.120108e+00	-1.17013e+00,	1.080398e-05	
197	9.332543e+00	-1.17013e+00,	1.105564e-05	
198	9.549926e+00	-1.17013e+00,	1.131316e-05	
199	9.772372e+00	-1.17013e+00,	1.157667e-05	
200	1.000000e+01	-1.17013e+00,	1.184633e-05	
201	1.023293e+01	-1.17013e+00,	1.212227e-05	
202	1.047129e+01	-1.17013e+00,	1.240463e-05	
203	1.071519e+01	-1.17013e+00,	1.269357e-05	
204	1.096478e+01	-1.17013e+00,	1.298924e-05	
205	1.122018e+01	-1.17013e+00,	1.329180e-05	
206	1.148154e+01	-1.17013e+00,	1.360141e-05	
207	1.174898e+01	-1.17013e+00,	1.391822e-05	
208	1.202264e+01	-1.17013e+00,	1.424242e-05	
209	1.230269e+01	-1.17013e+00,	1.457417e-05	
210	1.258925e+01	-1.17013e+00,	1.491364e-05	
211	1.288250e+01	-1.17013e+00,	1.526103e-05	
212	1.318257e+01	-1.17013e+00,	1.561650e-05	
213	1.348963e+01	-1.17013e+00,	1.598026e-05	
214	1.380384e+01	-1.17013e+00,	1.635249e-05	
215	1.412538e+01	-1.17013e+00,	1.673338e-05	
216	1.445440e+01	-1.17013e+00,	1.712316e-05	
217	1.479108e+01	-1.17013e+00,	1.752200e-05	
218	1.513561e+01	-1.17013e+00,	1.793014e-05	
219	1.548817e+01	-1.17013e+00,	1.834779e-05	
220	1.584893e+01	-1.17013e+00,	1.877517e-05	
221	1.621810e+01	-1.17013e+00,	1.921250e-05	
222	1.659587e+01	-1.17013e+00,	1.966001e-05	
223	1.698244e+01	-1.17013e+00,	2.011795e-05	
224	1.737801e+01	-1.17013e+00,	2.058656e-05	
225	1.778279e+01	-1.17013e+00,	2.106608e-05	
226	1.819701e+01	-1.17013e+00,	2.155678e-05	
227	1.862087e+01	-1.17013e+00,	2.205890e-05	
228	1.905461e+01	-1.17013e+00,	2.257271e-05	

Index   frequency       vout                            
--------------------------------------------------------------------------------
229	1.949845e+01	-1.17013e+00,	2.309850e-05	
230	1.995262e+01	-1.17013e+00,	2.363653e-05	
231	2.041738e+01	-1.17013e+00,	2.418710e-05	
232	2.089296e+01	-1.17013e+00,	2.475049e-05	
233	2.137962e+01	-1.17013e+00,	2.532700e-05	
234	2.187762e+01	-1.17013e+00,	2.591694e-05	
235	2.238721e+01	-1.17013e+00,	2.652063e-05	
236	2.290868e+01	-1.17013e+00,	2.713837e-05	
237	2.344229e+01	-1.17013e+00,	2.777051e-05	
238	2.398833e+01	-1.17013e+00,	2.841736e-05	
239	2.454709e+01	-1.17013e+00,	2.907929e-05	
240	2.511886e+01	-1.17013e+00,	2.975663e-05	
241	2.570396e+01	-1.17013e+00,	3.044975e-05	
242	2.630268e+01	-1.17013e+00,	3.115902e-05	
243	2.691535e+01	-1.17013e+00,	3.188481e-05	
244	2.754229e+01	-1.17013e+00,	3.262750e-05	
245	2.818383e+01	-1.17013e+00,	3.338749e-05	
246	2.884032e+01	-1.17013e+00,	3.416519e-05	
247	2.951209e+01	-1.17013e+00,	3.496100e-05	
248	3.019952e+01	-1.17013e+00,	3.577534e-05	
249	3.090295e+01	-1.17013e+00,	3.660866e-05	
250	3.162278e+01	-1.17013e+00,	3.746138e-05	
251	3.235937e+01	-1.17013e+00,	3.833397e-05	
252	3.311311e+01	-1.17013e+00,	3.922688e-05	
253	3.388442e+01	-1.17013e+00,	4.014059e-05	
254	3.467369e+01	-1.17013e+00,	4.107559e-05	
255	3.548134e+01	-1.17013e+00,	4.203236e-05	
256	3.630781e+01	-1.17013e+00,	4.301142e-05	
257	3.715352e+01	-1.17013e+00,	4.401329e-05	
258	3.801894e+01	-1.17013e+00,	4.503849e-05	
259	3.890451e+01	-1.17013e+00,	4.608757e-05	
260	3.981072e+01	-1.17013e+00,	4.716109e-05	
261	4.073803e+01	-1.17013e+00,	4.825961e-05	
262	4.168694e+01	-1.17013e+00,	4.938372e-05	
263	4.265795e+01	-1.17013e+00,	5.053401e-05	
264	4.365158e+01	-1.17013e+00,	5.171110e-05	
265	4.466836e+01	-1.17013e+00,	5.291561e-05	
266	4.570882e+01	-1.17013e+00,	5.414817e-05	
267	4.677351e+01	-1.17013e+00,	5.540944e-05	
268	4.786301e+01	-1.17013e+00,	5.670010e-05	
269	4.897788e+01	-1.17013e+00,	5.802081e-05	
270	5.011872e+01	-1.17013e+00,	5.937229e-05	
271	5.128614e+01	-1.17013e+00,	6.075525e-05	
272	5.248075e+01	-1.17013e+00,	6.217042e-05	
273	5.370318e+01	-1.17013e+00,	6.361855e-05	
274	5.495409e+01	-1.17013e+00,	6.510042e-05	
275	5.623413e+01	-1.17013e+00,	6.661680e-05	
276	5.754399e+01	-1.17013e+00,	6.816851e-05	
277	5.888437e+01	-1.17013e+00,	6.975636e-05	
278	6.025596e+01	-1.17013e+00,	7.138119e-05	
279	6.165950e+01	-1.17013e+00,	7.304387e-05	
280	6.309573e+01	-1.17013e+00,	7.474528e-05	
281	6.456542e+01	-1.17013e+00,	7.648632e-05	
282	6.606934e+01	-1.17013e+00,	7.826792e-05	
283	6.760830e+01	-1.17013e+00,	8.009101e-05	
284	6.918310e+01	-1.17013e+00,	8.195657e-05	
285	7.079458e+01	-1.17013e+00,	8.386559e-05	
286	7.244360e+01	-1.17013e+00,	8.581907e-05	

Index   frequency       vout                            
--------------------------------------------------------------------------------
287	7.413102e+01	-1.17013e+00,	8.781805e-05	
288	7.585776e+01	-1.17013e+00,	8.986360e-05	
289	7.762471e+01	-1.17013e+00,	9.195679e-05	
290	7.943282e+01	-1.17013e+00,	9.409874e-05	
291	8.128305e+01	-1.17013e+00,	9.629058e-05	
292	8.317638e+01	-1.17013e+00,	9.853347e-05	
293	8.511380e+01	-1.17013e+00,	1.008286e-04	
294	8.709636e+01	-1.17013e+00,	1.031772e-04	
295	8.912509e+01	-1.17013e+00,	1.055805e-04	
296	9.120108e+01	-1.17013e+00,	1.080398e-04	
297	9.332543e+01	-1.17013e+00,	1.105564e-04	
298	9.549926e+01	-1.17013e+00,	1.131316e-04	
299	9.772372e+01	-1.17013e+00,	1.157667e-04	
300	1.000000e+02	-1.17013e+00,	1.184633e-04	
301	1.023293e+02	-1.17013e+00,	1.212227e-04	
302	1.047129e+02	-1.17013e+00,	1.240463e-04	
303	1.071519e+02	-1.17013e+00,	1.269357e-04	
304	1.096478e+02	-1.17013e+00,	1.298924e-04	
305	1.122018e+02	-1.17013e+00,	1.329180e-04	
306	1.148154e+02	-1.17013e+00,	1.360141e-04	
307	1.174898e+02	-1.17013e+00,	1.391822e-04	
308	1.202264e+02	-1.17013e+00,	1.424242e-04	
309	1.230269e+02	-1.17013e+00,	1.457417e-04	
310	1.258925e+02	-1.17013e+00,	1.491364e-04	
311	1.288250e+02	-1.17013e+00,	1.526103e-04	
312	1.318257e+02	-1.17013e+00,	1.561650e-04	
313	1.348963e+02	-1.17013e+00,	1.598026e-04	
314	1.380384e+02	-1.17013e+00,	1.635249e-04	
315	1.412538e+02	-1.17013e+00,	1.673338e-04	
316	1.445440e+02	-1.17013e+00,	1.712315e-04	
317	1.479108e+02	-1.17013e+00,	1.752200e-04	
318	1.513561e+02	-1.17013e+00,	1.793014e-04	
319	1.548817e+02	-1.17013e+00,	1.834779e-04	
320	1.584893e+02	-1.17013e+00,	1.877517e-04	
321	1.621810e+02	-1.17013e+00,	1.921250e-04	
322	1.659587e+02	-1.17013e+00,	1.966001e-04	
323	1.698244e+02	-1.17013e+00,	2.011795e-04	
324	1.737801e+02	-1.17013e+00,	2.058656e-04	
325	1.778279e+02	-1.17013e+00,	2.106608e-04	
326	1.819701e+02	-1.17013e+00,	2.155677e-04	
327	1.862087e+02	-1.17013e+00,	2.205890e-04	
328	1.905461e+02	-1.17013e+00,	2.257271e-04	
329	1.949845e+02	-1.17013e+00,	2.309850e-04	
330	1.995262e+02	-1.17013e+00,	2.363653e-04	
331	2.041738e+02	-1.17013e+00,	2.418710e-04	
332	2.089296e+02	-1.17013e+00,	2.475049e-04	
333	2.137962e+02	-1.17013e+00,	2.532700e-04	
334	2.187762e+02	-1.17013e+00,	2.591694e-04	
335	2.238721e+02	-1.17013e+00,	2.652063e-04	
336	2.290868e+02	-1.17013e+00,	2.713837e-04	
337	2.344229e+02	-1.17013e+00,	2.777050e-04	
338	2.398833e+02	-1.17013e+00,	2.841736e-04	
339	2.454709e+02	-1.17013e+00,	2.907929e-04	
340	2.511886e+02	-1.17013e+00,	2.975663e-04	
341	2.570396e+02	-1.17013e+00,	3.044975e-04	
342	2.630268e+02	-1.17013e+00,	3.115902e-04	
343	2.691535e+02	-1.17013e+00,	3.188481e-04	
344	2.754229e+02	-1.17013e+00,	3.262750e-04	

Index   frequency       vout                            
--------------------------------------------------------------------------------
345	2.818383e+02	-1.17013e+00,	3.338749e-04	
346	2.884032e+02	-1.17013e+00,	3.416518e-04	
347	2.951209e+02	-1.17013e+00,	3.496099e-04	
348	3.019952e+02	-1.17013e+00,	3.577534e-04	
349	3.090295e+02	-1.17013e+00,	3.660865e-04	
350	3.162278e+02	-1.17013e+00,	3.746138e-04	
351	3.235937e+02	-1.17013e+00,	3.833397e-04	
352	3.311311e+02	-1.17013e+00,	3.922688e-04	
353	3.388442e+02	-1.17013e+00,	4.014059e-04	
354	3.467369e+02	-1.17013e+00,	4.107558e-04	
355	3.548134e+02	-1.17013e+00,	4.203236e-04	
356	3.630781e+02	-1.17013e+00,	4.301142e-04	
357	3.715352e+02	-1.17013e+00,	4.401328e-04	
358	3.801894e+02	-1.17013e+00,	4.503848e-04	
359	3.890451e+02	-1.17013e+00,	4.608756e-04	
360	3.981072e+02	-1.17013e+00,	4.716108e-04	
361	4.073803e+02	-1.17013e+00,	4.825960e-04	
362	4.168694e+02	-1.17013e+00,	4.938371e-04	
363	4.265795e+02	-1.17013e+00,	5.053401e-04	
364	4.365158e+02	-1.17013e+00,	5.171109e-04	
365	4.466836e+02	-1.17013e+00,	5.291560e-04	
366	4.570882e+02	-1.17013e+00,	5.414816e-04	
367	4.677351e+02	-1.17013e+00,	5.540943e-04	
368	4.786301e+02	-1.17013e+00,	5.670009e-04	
369	4.897788e+02	-1.17013e+00,	5.802080e-04	
370	5.011872e+02	-1.17013e+00,	5.937228e-04	
371	5.128614e+02	-1.17013e+00,	6.075524e-04	
372	5.248075e+02	-1.17013e+00,	6.217041e-04	
373	5.370318e+02	-1.17013e+00,	6.361854e-04	
374	5.495409e+02	-1.17013e+00,	6.510041e-04	
375	5.623413e+02	-1.17013e+00,	6.661679e-04	
376	5.754399e+02	-1.17013e+00,	6.816849e-04	
377	5.888437e+02	-1.17013e+00,	6.975634e-04	
378	6.025596e+02	-1.17013e+00,	7.138117e-04	
379	6.165950e+02	-1.17013e+00,	7.304385e-04	
380	6.309573e+02	-1.17013e+00,	7.474526e-04	
381	6.456542e+02	-1.17013e+00,	7.648630e-04	
382	6.606934e+02	-1.17013e+00,	7.826789e-04	
383	6.760830e+02	-1.17013e+00,	8.009099e-04	
384	6.918310e+02	-1.17013e+00,	8.195654e-04	
385	7.079458e+02	-1.17013e+00,	8.386556e-04	
386	7.244360e+02	-1.17013e+00,	8.581903e-04	
387	7.413102e+02	-1.17013e+00,	8.781801e-04	
388	7.585776e+02	-1.17013e+00,	8.986356e-04	
389	7.762471e+02	-1.17013e+00,	9.195675e-04	
390	7.943282e+02	-1.17013e+00,	9.409869e-04	
391	8.128305e+02	-1.17013e+00,	9.629053e-04	
392	8.317638e+02	-1.17013e+00,	9.853342e-04	
393	8.511380e+02	-1.17013e+00,	1.008286e-03	
394	8.709636e+02	-1.17013e+00,	1.031772e-03	
395	8.912509e+02	-1.17013e+00,	1.055805e-03	
396	9.120108e+02	-1.17013e+00,	1.080397e-03	
397	9.332543e+02	-1.17013e+00,	1.105563e-03	
398	9.549926e+02	-1.17013e+00,	1.131315e-03	
399	9.772372e+02	-1.17013e+00,	1.157667e-03	
400	1.000000e+03	-1.17013e+00,	1.184632e-03	
401	1.023293e+03	-1.17013e+00,	1.212226e-03	
402	1.047129e+03	-1.17013e+00,	1.240462e-03	

Index   frequency       vout                            
--------------------------------------------------------------------------------
403	1.071519e+03	-1.17013e+00,	1.269356e-03	
404	1.096478e+03	-1.17013e+00,	1.298923e-03	
405	1.122018e+03	-1.17013e+00,	1.329179e-03	
406	1.148154e+03	-1.17013e+00,	1.360139e-03	
407	1.174898e+03	-1.17013e+00,	1.391821e-03	
408	1.202264e+03	-1.17013e+00,	1.424240e-03	
409	1.230269e+03	-1.17013e+00,	1.457415e-03	
410	1.258925e+03	-1.17013e+00,	1.491363e-03	
411	1.288250e+03	-1.17013e+00,	1.526101e-03	
412	1.318257e+03	-1.17013e+00,	1.561648e-03	
413	1.348963e+03	-1.17013e+00,	1.598024e-03	
414	1.380384e+03	-1.17013e+00,	1.635246e-03	
415	1.412538e+03	-1.17013e+00,	1.673336e-03	
416	1.445440e+03	-1.17013e+00,	1.712313e-03	
417	1.479108e+03	-1.17013e+00,	1.752198e-03	
418	1.513561e+03	-1.17013e+00,	1.793011e-03	
419	1.548817e+03	-1.17013e+00,	1.834776e-03	
420	1.584893e+03	-1.17013e+00,	1.877513e-03	
421	1.621810e+03	-1.17013e+00,	1.921246e-03	
422	1.659587e+03	-1.17013e+00,	1.965997e-03	
423	1.698244e+03	-1.17013e+00,	2.011791e-03	
424	1.737801e+03	-1.17013e+00,	2.058651e-03	
425	1.778279e+03	-1.17013e+00,	2.106603e-03	
426	1.819701e+03	-1.17013e+00,	2.155672e-03	
427	1.862087e+03	-1.17013e+00,	2.205884e-03	
428	1.905461e+03	-1.17013e+00,	2.257265e-03	
429	1.949845e+03	-1.17013e+00,	2.309843e-03	
430	1.995262e+03	-1.17013e+00,	2.363646e-03	
431	2.041738e+03	-1.17013e+00,	2.418702e-03	
432	2.089296e+03	-1.17013e+00,	2.475041e-03	
433	2.137962e+03	-1.17013e+00,	2.532691e-03	
434	2.187762e+03	-1.17013e+00,	2.591685e-03	
435	2.238721e+03	-1.17013e+00,	2.652052e-03	
436	2.290868e+03	-1.17013e+00,	2.713826e-03	
437	2.344229e+03	-1.17013e+00,	2.777039e-03	
438	2.398833e+03	-1.17013e+00,	2.841724e-03	
439	2.454709e+03	-1.17013e+00,	2.907915e-03	
440	2.511886e+03	-1.17013e+00,	2.975649e-03	
441	2.570396e+03	-1.17013e+00,	3.044960e-03	
442	2.630268e+03	-1.17013e+00,	3.115885e-03	
443	2.691535e+03	-1.17013e+00,	3.188463e-03	
444	2.754229e+03	-1.17013e+00,	3.262731e-03	
445	2.818383e+03	-1.17013e+00,	3.338729e-03	
446	2.884032e+03	-1.17013e+00,	3.416497e-03	
447	2.951209e+03	-1.17013e+00,	3.496076e-03	
448	3.019952e+03	-1.17013e+00,	3.577509e-03	
449	3.090295e+03	-1.17012e+00,	3.660839e-03	
450	3.162278e+03	-1.17012e+00,	3.746109e-03	
451	3.235937e+03	-1.17012e+00,	3.833366e-03	
452	3.311311e+03	-1.17012e+00,	3.922655e-03	
453	3.388442e+03	-1.17012e+00,	4.014024e-03	
454	3.467369e+03	-1.17012e+00,	4.107521e-03	
455	3.548134e+03	-1.17012e+00,	4.203195e-03	
456	3.630781e+03	-1.17012e+00,	4.301098e-03	
457	3.715352e+03	-1.17012e+00,	4.401282e-03	
458	3.801894e+03	-1.17012e+00,	4.503799e-03	
459	3.890451e+03	-1.17012e+00,	4.608703e-03	
460	3.981072e+03	-1.17012e+00,	4.716051e-03	

Index   frequency       vout                            
--------------------------------------------------------------------------------
461	4.073803e+03	-1.17012e+00,	4.825899e-03	
462	4.168694e+03	-1.17012e+00,	4.938306e-03	
463	4.265795e+03	-1.17012e+00,	5.053330e-03	
464	4.365158e+03	-1.17012e+00,	5.171034e-03	
465	4.466836e+03	-1.17011e+00,	5.291479e-03	
466	4.570882e+03	-1.17011e+00,	5.414730e-03	
467	4.677351e+03	-1.17011e+00,	5.540851e-03	
468	4.786301e+03	-1.17011e+00,	5.669909e-03	
469	4.897788e+03	-1.17011e+00,	5.801974e-03	
470	5.011872e+03	-1.17011e+00,	5.937114e-03	
471	5.128614e+03	-1.17011e+00,	6.075402e-03	
472	5.248075e+03	-1.17011e+00,	6.216910e-03	
473	5.370318e+03	-1.17010e+00,	6.361714e-03	
474	5.495409e+03	-1.17010e+00,	6.509891e-03	
475	5.623413e+03	-1.17010e+00,	6.661518e-03	
476	5.754399e+03	-1.17010e+00,	6.816677e-03	
477	5.888437e+03	-1.17010e+00,	6.975449e-03	
478	6.025596e+03	-1.17010e+00,	7.137919e-03	
479	6.165950e+03	-1.17010e+00,	7.304173e-03	
480	6.309573e+03	-1.17009e+00,	7.474299e-03	
481	6.456542e+03	-1.17009e+00,	7.648387e-03	
482	6.606934e+03	-1.17009e+00,	7.826529e-03	
483	6.760830e+03	-1.17009e+00,	8.008819e-03	
484	6.918310e+03	-1.17009e+00,	8.195355e-03	
485	7.079458e+03	-1.17008e+00,	8.386235e-03	
486	7.244360e+03	-1.17008e+00,	8.581560e-03	
487	7.413102e+03	-1.17008e+00,	8.781433e-03	
488	7.585776e+03	-1.17007e+00,	8.985961e-03	
489	7.762471e+03	-1.17007e+00,	9.195252e-03	
490	7.943282e+03	-1.17007e+00,	9.409416e-03	
491	8.128305e+03	-1.17007e+00,	9.628567e-03	
492	8.317638e+03	-1.17006e+00,	9.852822e-03	
493	8.511380e+03	-1.17006e+00,	1.008230e-02	
494	8.709636e+03	-1.17006e+00,	1.031712e-02	
495	8.912509e+03	-1.17005e+00,	1.055741e-02	
496	9.120108e+03	-1.17005e+00,	1.080329e-02	
497	9.332543e+03	-1.17004e+00,	1.105490e-02	
498	9.549926e+03	-1.17004e+00,	1.131236e-02	
499	9.772372e+03	-1.17004e+00,	1.157582e-02	
500	1.000000e+04	-1.17003e+00,	1.184542e-02	
501	1.023293e+04	-1.17003e+00,	1.212129e-02	
502	1.047129e+04	-1.17002e+00,	1.240358e-02	
503	1.071519e+04	-1.17002e+00,	1.269245e-02	
504	1.096478e+04	-1.17001e+00,	1.298804e-02	
505	1.122018e+04	-1.17000e+00,	1.329051e-02	
506	1.148154e+04	-1.17000e+00,	1.360002e-02	
507	1.174898e+04	-1.16999e+00,	1.391674e-02	
508	1.202264e+04	-1.16998e+00,	1.424083e-02	
509	1.230269e+04	-1.16998e+00,	1.457247e-02	
510	1.258925e+04	-1.16997e+00,	1.491182e-02	
511	1.288250e+04	-1.16996e+00,	1.525908e-02	
512	1.318257e+04	-1.16995e+00,	1.561441e-02	
513	1.348963e+04	-1.16995e+00,	1.597802e-02	
514	1.380384e+04	-1.16994e+00,	1.635008e-02	
515	1.412538e+04	-1.16993e+00,	1.673081e-02	
516	1.445440e+04	-1.16992e+00,	1.712040e-02	
517	1.479108e+04	-1.16991e+00,	1.751905e-02	
518	1.513561e+04	-1.16990e+00,	1.792698e-02	

Index   frequency       vout                            
--------------------------------------------------------------------------------
519	1.548817e+04	-1.16989e+00,	1.834440e-02	
520	1.584893e+04	-1.16987e+00,	1.877153e-02	
521	1.621810e+04	-1.16986e+00,	1.920860e-02	
522	1.659587e+04	-1.16985e+00,	1.965584e-02	
523	1.698244e+04	-1.16983e+00,	2.011348e-02	
524	1.737801e+04	-1.16982e+00,	2.058177e-02	
525	1.778279e+04	-1.16981e+00,	2.106095e-02	
526	1.819701e+04	-1.16979e+00,	2.155127e-02	
527	1.862087e+04	-1.16977e+00,	2.205300e-02	
528	1.905461e+04	-1.16976e+00,	2.256640e-02	
529	1.949845e+04	-1.16974e+00,	2.309173e-02	
530	1.995262e+04	-1.16972e+00,	2.362928e-02	
531	2.041738e+04	-1.16970e+00,	2.417933e-02	
532	2.089296e+04	-1.16968e+00,	2.474216e-02	
533	2.137962e+04	-1.16966e+00,	2.531808e-02	
534	2.187762e+04	-1.16964e+00,	2.590739e-02	
535	2.238721e+04	-1.16961e+00,	2.651039e-02	
536	2.290868e+04	-1.16959e+00,	2.712740e-02	
537	2.344229e+04	-1.16956e+00,	2.775875e-02	
538	2.398833e+04	-1.16954e+00,	2.840476e-02	
539	2.454709e+04	-1.16951e+00,	2.906579e-02	
540	2.511886e+04	-1.16948e+00,	2.974217e-02	
541	2.570396e+04	-1.16945e+00,	3.043425e-02	
542	2.630268e+04	-1.16941e+00,	3.114241e-02	
543	2.691535e+04	-1.16938e+00,	3.186701e-02	
544	2.754229e+04	-1.16935e+00,	3.260843e-02	
545	2.818383e+04	-1.16931e+00,	3.336706e-02	
546	2.884032e+04	-1.16927e+00,	3.414330e-02	
547	2.951209e+04	-1.16923e+00,	3.493754e-02	
548	3.019952e+04	-1.16919e+00,	3.575021e-02	
549	3.090295e+04	-1.16914e+00,	3.658173e-02	
550	3.162278e+04	-1.16909e+00,	3.743253e-02	
551	3.235937e+04	-1.16905e+00,	3.830305e-02	
552	3.311311e+04	-1.16899e+00,	3.919376e-02	
553	3.388442e+04	-1.16894e+00,	4.010510e-02	
554	3.467369e+04	-1.16888e+00,	4.103756e-02	
555	3.548134e+04	-1.16882e+00,	4.199161e-02	
556	3.630781e+04	-1.16876e+00,	4.296776e-02	
557	3.715352e+04	-1.16870e+00,	4.396650e-02	
558	3.801894e+04	-1.16863e+00,	4.498836e-02	
559	3.890451e+04	-1.16856e+00,	4.603386e-02	
560	3.981072e+04	-1.16849e+00,	4.710354e-02	
561	4.073803e+04	-1.16841e+00,	4.819795e-02	
562	4.168694e+04	-1.16833e+00,	4.931765e-02	
563	4.265795e+04	-1.16824e+00,	5.046323e-02	
564	4.365158e+04	-1.16815e+00,	5.163526e-02	
565	4.466836e+04	-1.16806e+00,	5.283435e-02	
566	4.570882e+04	-1.16796e+00,	5.406110e-02	
567	4.677351e+04	-1.16786e+00,	5.531616e-02	
568	4.786301e+04	-1.16775e+00,	5.660015e-02	
569	4.897788e+04	-1.16764e+00,	5.791372e-02	
570	5.011872e+04	-1.16752e+00,	5.925755e-02	
571	5.128614e+04	-1.16740e+00,	6.063231e-02	
572	5.248075e+04	-1.16727e+00,	6.203871e-02	
573	5.370318e+04	-1.16714e+00,	6.347743e-02	
574	5.495409e+04	-1.16700e+00,	6.494922e-02	
575	5.623413e+04	-1.16685e+00,	6.645481e-02	
576	5.754399e+04	-1.16669e+00,	6.799495e-02	

Index   frequency       vout                            
--------------------------------------------------------------------------------
577	5.888437e+04	-1.16653e+00,	6.957041e-02	
578	6.025596e+04	-1.16636e+00,	7.118197e-02	
579	6.165950e+04	-1.16619e+00,	7.283043e-02	
580	6.309573e+04	-1.16600e+00,	7.451661e-02	
581	6.456542e+04	-1.16581e+00,	7.624133e-02	
582	6.606934e+04	-1.16560e+00,	7.800544e-02	
583	6.760830e+04	-1.16539e+00,	7.980981e-02	
584	6.918310e+04	-1.16517e+00,	8.165531e-02	
585	7.079458e+04	-1.16493e+00,	8.354283e-02	
586	7.244360e+04	-1.16469e+00,	8.547329e-02	
587	7.413102e+04	-1.16443e+00,	8.744761e-02	
588	7.585776e+04	-1.16417e+00,	8.946674e-02	
589	7.762471e+04	-1.16389e+00,	9.153164e-02	
590	7.943282e+04	-1.16359e+00,	9.364328e-02	
591	8.128305e+04	-1.16329e+00,	9.580266e-02	
592	8.317638e+04	-1.16297e+00,	9.801078e-02	
593	8.511380e+04	-1.16263e+00,	1.002687e-01	
594	8.709636e+04	-1.16228e+00,	1.025774e-01	
595	8.912509e+04	-1.16191e+00,	1.049380e-01	
596	9.120108e+04	-1.16153e+00,	1.073515e-01	
597	9.332543e+04	-1.16112e+00,	1.098191e-01	
598	9.549926e+04	-1.16070e+00,	1.123418e-01	
599	9.772372e+04	-1.16026e+00,	1.149207e-01	
600	1.000000e+05	-1.15980e+00,	1.175571e-01	
601	1.023293e+05	-1.15931e+00,	1.202520e-01	
602	1.047129e+05	-1.15881e+00,	1.230066e-01	
603	1.071519e+05	-1.15828e+00,	1.258221e-01	
604	1.096478e+05	-1.15773e+00,	1.286997e-01	
605	1.122018e+05	-1.15715e+00,	1.316405e-01	
606	1.148154e+05	-1.15654e+00,	1.346458e-01	
607	1.174898e+05	-1.15591e+00,	1.377168e-01	
608	1.202264e+05	-1.15524e+00,	1.408547e-01	
609	1.230269e+05	-1.15455e+00,	1.440608e-01	
610	1.258925e+05	-1.15382e+00,	1.473364e-01	
611	1.288250e+05	-1.15307e+00,	1.506826e-01	
612	1.318257e+05	-1.15227e+00,	1.541007e-01	
613	1.348963e+05	-1.15144e+00,	1.575919e-01	
614	1.380384e+05	-1.15057e+00,	1.611577e-01	
615	1.412538e+05	-1.14966e+00,	1.647991e-01	
616	1.445440e+05	-1.14872e+00,	1.685174e-01	
617	1.479108e+05	-1.14772e+00,	1.723140e-01	
618	1.513561e+05	-1.14668e+00,	1.761900e-01	
619	1.548817e+05	-1.14560e+00,	1.801466e-01	
620	1.584893e+05	-1.14447e+00,	1.841851e-01	
621	1.621810e+05	-1.14328e+00,	1.883068e-01	
622	1.659587e+05	-1.14204e+00,	1.925127e-01	
623	1.698244e+05	-1.14074e+00,	1.968040e-01	
624	1.737801e+05	-1.13939e+00,	2.011819e-01	
625	1.778279e+05	-1.13798e+00,	2.056476e-01	
626	1.819701e+05	-1.13650e+00,	2.102019e-01	
627	1.862087e+05	-1.13495e+00,	2.148461e-01	
628	1.905461e+05	-1.13334e+00,	2.195811e-01	
629	1.949845e+05	-1.13166e+00,	2.244078e-01	
630	1.995262e+05	-1.12990e+00,	2.293271e-01	
631	2.041738e+05	-1.12806e+00,	2.343400e-01	
632	2.089296e+05	-1.12614e+00,	2.394470e-01	
633	2.137962e+05	-1.12414e+00,	2.446491e-01	
634	2.187762e+05	-1.12205e+00,	2.499467e-01	

Index   frequency       vout                            
--------------------------------------------------------------------------------
635	2.238721e+05	-1.11986e+00,	2.553404e-01	
636	2.290868e+05	-1.11759e+00,	2.608307e-01	
637	2.344229e+05	-1.11521e+00,	2.664179e-01	
638	2.398833e+05	-1.11273e+00,	2.721023e-01	
639	2.454709e+05	-1.11015e+00,	2.778839e-01	
640	2.511886e+05	-1.10745e+00,	2.837629e-01	
641	2.570396e+05	-1.10464e+00,	2.897391e-01	
642	2.630268e+05	-1.10171e+00,	2.958121e-01	
643	2.691535e+05	-1.09865e+00,	3.019817e-01	
644	2.754229e+05	-1.09547e+00,	3.082472e-01	
645	2.818383e+05	-1.09215e+00,	3.146078e-01	
646	2.884032e+05	-1.08870e+00,	3.210625e-01	
647	2.951209e+05	-1.08510e+00,	3.276104e-01	
648	3.019952e+05	-1.08136e+00,	3.342499e-01	
649	3.090295e+05	-1.07746e+00,	3.409796e-01	
650	3.162278e+05	-1.07340e+00,	3.477976e-01	
651	3.235937e+05	-1.06918e+00,	3.547019e-01	
652	3.311311e+05	-1.06480e+00,	3.616902e-01	
653	3.388442e+05	-1.06023e+00,	3.687600e-01	
654	3.467369e+05	-1.05549e+00,	3.759082e-01	
655	3.548134e+05	-1.05057e+00,	3.831319e-01	
656	3.630781e+05	-1.04545e+00,	3.904276e-01	
657	3.715352e+05	-1.04014e+00,	3.977914e-01	
658	3.801894e+05	-1.03462e+00,	4.052193e-01	
659	3.890451e+05	-1.02890e+00,	4.127068e-01	
660	3.981072e+05	-1.02297e+00,	4.202492e-01	
661	4.073803e+05	-1.01682e+00,	4.278412e-01	
662	4.168694e+05	-1.01044e+00,	4.354773e-01	
663	4.265795e+05	-1.00384e+00,	4.431517e-01	
664	4.365158e+05	-9.97002e-01,	4.508579e-01	
665	4.466836e+05	-9.89927e-01,	4.585893e-01	
666	4.570882e+05	-9.82609e-01,	4.663389e-01	
667	4.677351e+05	-9.75043e-01,	4.740989e-01	
668	4.786301e+05	-9.67225e-01,	4.818617e-01	
669	4.897788e+05	-9.59151e-01,	4.896188e-01	
670	5.011872e+05	-9.50816e-01,	4.973615e-01	
671	5.128614e+05	-9.42218e-01,	5.050807e-01	
672	5.248075e+05	-9.33353e-01,	5.127668e-01	
673	5.370318e+05	-9.24218e-01,	5.204101e-01	
674	5.495409e+05	-9.14812e-01,	5.280002e-01	
675	5.623413e+05	-9.05131e-01,	5.355265e-01	
676	5.754399e+05	-8.95175e-01,	5.429781e-01	
677	5.888437e+05	-8.84943e-01,	5.503436e-01	
678	6.025596e+05	-8.74435e-01,	5.576116e-01	
679	6.165950e+05	-8.63650e-01,	5.647702e-01	
680	6.309573e+05	-8.52590e-01,	5.718073e-01	
681	6.456542e+05	-8.41255e-01,	5.787107e-01	
682	6.606934e+05	-8.29649e-01,	5.854680e-01	
683	6.760830e+05	-8.17774e-01,	5.920667e-01	
684	6.918310e+05	-8.05633e-01,	5.984941e-01	
685	7.079458e+05	-7.93231e-01,	6.047376e-01	
686	7.244360e+05	-7.80574e-01,	6.107846e-01	
687	7.413102e+05	-7.67665e-01,	6.166225e-01	
688	7.585776e+05	-7.54514e-01,	6.222389e-01	
689	7.762471e+05	-7.41126e-01,	6.276216e-01	
690	7.943282e+05	-7.27510e-01,	6.327585e-01	
691	8.128305e+05	-7.13674e-01,	6.376379e-01	
692	8.317638e+05	-6.99629e-01,	6.422485e-01	

Index   frequency       vout                            
--------------------------------------------------------------------------------
693	8.511380e+05	-6.85385e-01,	6.465793e-01	
694	8.709636e+05	-6.70954e-01,	6.506198e-01	
695	8.912509e+05	-6.56346e-01,	6.543601e-01	
696	9.120108e+05	-6.41574e-01,	6.577908e-01	
697	9.332543e+05	-6.26652e-01,	6.609031e-01	
698	9.549926e+05	-6.11593e-01,	6.636890e-01	
699	9.772372e+05	-5.96412e-01,	6.661412e-01	
700	1.000000e+06	-5.81124e-01,	6.682530e-01	
701	1.023293e+06	-5.65743e-01,	6.700189e-01	
702	1.047129e+06	-5.50286e-01,	6.714339e-01	
703	1.071519e+06	-5.34767e-01,	6.724940e-01	
704	1.096478e+06	-5.19204e-01,	6.731962e-01	
705	1.122018e+06	-5.03613e-01,	6.735383e-01	
706	1.148154e+06	-4.88010e-01,	6.735191e-01	
707	1.174898e+06	-4.72412e-01,	6.731382e-01	
708	1.202264e+06	-4.56835e-01,	6.723966e-01	
709	1.230269e+06	-4.41297e-01,	6.712956e-01	
710	1.258925e+06	-4.25812e-01,	6.698380e-01	
711	1.288250e+06	-4.10397e-01,	6.680272e-01	
712	1.318257e+06	-3.95068e-01,	6.658675e-01	
713	1.348963e+06	-3.79841e-01,	6.633643e-01	
714	1.380384e+06	-3.64730e-01,	6.605236e-01	
715	1.412538e+06	-3.49750e-01,	6.573524e-01	
716	1.445440e+06	-3.34914e-01,	6.538581e-01	
717	1.479108e+06	-3.20237e-01,	6.500492e-01	
718	1.513561e+06	-3.05731e-01,	6.459346e-01	
719	1.548817e+06	-2.91408e-01,	6.415241e-01	
720	1.584893e+06	-2.77281e-01,	6.368276e-01	
721	1.621810e+06	-2.63358e-01,	6.318559e-01	
722	1.659587e+06	-2.49651e-01,	6.266200e-01	
723	1.698244e+06	-2.36169e-01,	6.211315e-01	
724	1.737801e+06	-2.22921e-01,	6.154020e-01	
725	1.778279e+06	-2.09913e-01,	6.094436e-01	
726	1.819701e+06	-1.97153e-01,	6.032686e-01	
727	1.862087e+06	-1.84648e-01,	5.968894e-01	
728	1.905461e+06	-1.72402e-01,	5.903183e-01	
729	1.949845e+06	-1.60421e-01,	5.835681e-01	
730	1.995262e+06	-1.48707e-01,	5.766511e-01	
731	2.041738e+06	-1.37266e-01,	5.695798e-01	
732	2.089296e+06	-1.26098e-01,	5.623666e-01	
733	2.137962e+06	-1.15205e-01,	5.550237e-01	
734	2.187762e+06	-1.04590e-01,	5.475631e-01	
735	2.238721e+06	-9.42515e-02,	5.399966e-01	
736	2.290868e+06	-8.41907e-02,	5.323358e-01	
737	2.344229e+06	-7.44065e-02,	5.245919e-01	
738	2.398833e+06	-6.48978e-02,	5.167760e-01	
739	2.454709e+06	-5.56630e-02,	5.088986e-01	
740	2.511886e+06	-4.66999e-02,	5.009701e-01	
741	2.570396e+06	-3.80060e-02,	4.930003e-01	
742	2.630268e+06	-2.95783e-02,	4.849989e-01	
743	2.691535e+06	-2.14135e-02,	4.769750e-01	
744	2.754229e+06	-1.35080e-02,	4.689373e-01	
745	2.818383e+06	-5.85778e-03,	4.608942e-01	
746	2.884032e+06	1.541292e-03,	4.528537e-01	
747	2.951209e+06	8.693685e-03,	4.448233e-01	
748	3.019952e+06	1.560406e-02,	4.368102e-01	
749	3.090295e+06	2.227724e-02,	4.288211e-01	
750	3.162278e+06	2.871821e-02,	4.208623e-01	

Index   frequency       vout                            
--------------------------------------------------------------------------------
751	3.235937e+06	3.493210e-02,	4.129397e-01	
752	3.311311e+06	4.092411e-02,	4.050590e-01	
753	3.388442e+06	4.669954e-02,	3.972253e-01	
754	3.467369e+06	5.226375e-02,	3.894435e-01	
755	3.548134e+06	5.762214e-02,	3.817179e-01	
756	3.630781e+06	6.278012e-02,	3.740526e-01	
757	3.715352e+06	6.774312e-02,	3.664515e-01	
758	3.801894e+06	7.251655e-02,	3.589180e-01	
759	3.890451e+06	7.710579e-02,	3.514551e-01	
760	3.981072e+06	8.151618e-02,	3.440657e-01	
761	4.073803e+06	8.575303e-02,	3.367523e-01	
762	4.168694e+06	8.982155e-02,	3.295173e-01	
763	4.265795e+06	9.372692e-02,	3.223624e-01	
764	4.365158e+06	9.747422e-02,	3.152896e-01	
765	4.466836e+06	1.010684e-01,	3.083003e-01	
766	4.570882e+06	1.045144e-01,	3.013957e-01	
767	4.677351e+06	1.078170e-01,	2.945770e-01	
768	4.786301e+06	1.109809e-01,	2.878449e-01	
769	4.897788e+06	1.140107e-01,	2.812002e-01	
770	5.011872e+06	1.169108e-01,	2.746433e-01	
771	5.128614e+06	1.196855e-01,	2.681746e-01	
772	5.248075e+06	1.223392e-01,	2.617941e-01	
773	5.370318e+06	1.248758e-01,	2.555019e-01	
774	5.495409e+06	1.272995e-01,	2.492979e-01	
775	5.623413e+06	1.296139e-01,	2.431817e-01	
776	5.754399e+06	1.318229e-01,	2.371531e-01	
777	5.888437e+06	1.339301e-01,	2.312116e-01	
778	6.025596e+06	1.359389e-01,	2.253564e-01	
779	6.165950e+06	1.378528e-01,	2.195871e-01	
780	6.309573e+06	1.396749e-01,	2.139027e-01	
781	6.456542e+06	1.414083e-01,	2.083024e-01	
782	6.606934e+06	1.430560e-01,	2.027853e-01	
783	6.760830e+06	1.446210e-01,	1.973505e-01	
784	6.918310e+06	1.461060e-01,	1.919969e-01	
785	7.079458e+06	1.475135e-01,	1.867233e-01	
786	7.244360e+06	1.488461e-01,	1.815286e-01	
787	7.413102e+06	1.501063e-01,	1.764117e-01	
788	7.585776e+06	1.512963e-01,	1.713714e-01	
789	7.762471e+06	1.524184e-01,	1.664063e-01	
790	7.943282e+06	1.534745e-01,	1.615152e-01	
791	8.128305e+06	1.544667e-01,	1.566967e-01	
792	8.317638e+06	1.553969e-01,	1.519497e-01	
793	8.511380e+06	1.562668e-01,	1.472727e-01	
794	8.709636e+06	1.570781e-01,	1.426644e-01	
795	8.912509e+06	1.578324e-01,	1.381235e-01	
796	9.120108e+06	1.585311e-01,	1.336486e-01	
797	9.332543e+06	1.591758e-01,	1.292384e-01	
798	9.549926e+06	1.597677e-01,	1.248915e-01	
799	9.772372e+06	1.603079e-01,	1.206066e-01	
800	1.000000e+07	1.607978e-01,	1.163824e-01	
801	1.023293e+07	1.612382e-01,	1.122176e-01	
802	1.047129e+07	1.616302e-01,	1.081109e-01	
803	1.071519e+07	1.619748e-01,	1.040609e-01	
804	1.096478e+07	1.622726e-01,	1.000666e-01	
805	1.122018e+07	1.625245e-01,	9.612665e-02	
806	1.148154e+07	1.627312e-01,	9.223985e-02	
807	1.174898e+07	1.628933e-01,	8.840506e-02	
808	1.202264e+07	1.630112e-01,	8.462116e-02	

Index   frequency       vout                            
--------------------------------------------------------------------------------
809	1.230269e+07	1.630855e-01,	8.088704e-02	
810	1.258925e+07	1.631167e-01,	7.720166e-02	
811	1.288250e+07	1.631050e-01,	7.356399e-02	
812	1.318257e+07	1.630508e-01,	6.997308e-02	
813	1.348963e+07	1.629544e-01,	6.642799e-02	
814	1.380384e+07	1.628159e-01,	6.292784e-02	
815	1.412538e+07	1.626354e-01,	5.947179e-02	
816	1.445440e+07	1.624132e-01,	5.605908e-02	
817	1.479108e+07	1.621492e-01,	5.268896e-02	
818	1.513561e+07	1.618435e-01,	4.936078e-02	
819	1.548817e+07	1.614960e-01,	4.607391e-02	
820	1.584893e+07	1.611067e-01,	4.282779e-02	
821	1.621810e+07	1.606756e-01,	3.962195e-02	
822	1.659587e+07	1.602024e-01,	3.645593e-02	
823	1.698244e+07	1.596871e-01,	3.332938e-02	
824	1.737801e+07	1.591296e-01,	3.024198e-02	
825	1.778279e+07	1.585296e-01,	2.719352e-02	
826	1.819701e+07	1.578869e-01,	2.418381e-02	
827	1.862087e+07	1.572015e-01,	2.121276e-02	
828	1.905461e+07	1.564730e-01,	1.828035e-02	
829	1.949845e+07	1.557013e-01,	1.538662e-02	
830	1.995262e+07	1.548862e-01,	1.253168e-02	
831	2.041738e+07	1.540276e-01,	9.715716e-03	
832	2.089296e+07	1.531252e-01,	6.938993e-03	
833	2.137962e+07	1.521788e-01,	4.201838e-03	
834	2.187762e+07	1.511885e-01,	1.504652e-03	
835	2.238721e+07	1.501541e-01,	-1.15210e-03	
836	2.290868e+07	1.490755e-01,	-3.76787e-03	
837	2.344229e+07	1.479527e-01,	-6.34206e-03	
838	2.398833e+07	1.467857e-01,	-8.87400e-03	
839	2.454709e+07	1.455747e-01,	-1.13630e-02	
840	2.511886e+07	1.443198e-01,	-1.38081e-02	
841	2.570396e+07	1.430211e-01,	-1.62087e-02	
842	2.630268e+07	1.416789e-01,	-1.85637e-02	
843	2.691535e+07	1.402936e-01,	-2.08723e-02	
844	2.754229e+07	1.388655e-01,	-2.31335e-02	
845	2.818383e+07	1.373952e-01,	-2.53461e-02	
846	2.884032e+07	1.358832e-01,	-2.75092e-02	
847	2.951209e+07	1.343302e-01,	-2.96217e-02	
848	3.019952e+07	1.327369e-01,	-3.16825e-02	
849	3.090295e+07	1.311042e-01,	-3.36904e-02	
850	3.162278e+07	1.294330e-01,	-3.56444e-02	
851	3.235937e+07	1.277243e-01,	-3.75432e-02	
852	3.311311e+07	1.259793e-01,	-3.93859e-02	
853	3.388442e+07	1.241992e-01,	-4.11712e-02	
854	3.467369e+07	1.223854e-01,	-4.28982e-02	
855	3.548134e+07	1.205392e-01,	-4.45658e-02	
856	3.630781e+07	1.186623e-01,	-4.61730e-02	
857	3.715352e+07	1.167561e-01,	-4.77188e-02	
858	3.801894e+07	1.148225e-01,	-4.92025e-02	
859	3.890451e+07	1.128632e-01,	-5.06230e-02	
860	3.981072e+07	1.108801e-01,	-5.19798e-02	
861	4.073803e+07	1.088752e-01,	-5.32721e-02	
862	4.168694e+07	1.068505e-01,	-5.44994e-02	
863	4.265795e+07	1.048081e-01,	-5.56611e-02	
864	4.365158e+07	1.027502e-01,	-5.67570e-02	
865	4.466836e+07	1.006790e-01,	-5.77866e-02	
866	4.570882e+07	9.859663e-02,	-5.87499e-02	

Index   frequency       vout                            
--------------------------------------------------------------------------------
867	4.677351e+07	9.650553e-02,	-5.96468e-02	
868	4.786301e+07	9.440795e-02,	-6.04774e-02	
869	4.897788e+07	9.230622e-02,	-6.12418e-02	
870	5.011872e+07	9.020268e-02,	-6.19404e-02	
871	5.128614e+07	8.809967e-02,	-6.25735e-02	
872	5.248075e+07	8.599950e-02,	-6.31417e-02	
873	5.370318e+07	8.390449e-02,	-6.36458e-02	
874	5.495409e+07	8.181689e-02,	-6.40864e-02	
875	5.623413e+07	7.973894e-02,	-6.44645e-02	
876	5.754399e+07	7.767283e-02,	-6.47811e-02	
877	5.888437e+07	7.562068e-02,	-6.50373e-02	
878	6.025596e+07	7.358456e-02,	-6.52343e-02	
879	6.165950e+07	7.156645e-02,	-6.53736e-02	
880	6.309573e+07	6.956828e-02,	-6.54564e-02	
881	6.456542e+07	6.759187e-02,	-6.54844e-02	
882	6.606934e+07	6.563897e-02,	-6.54590e-02	
883	6.760830e+07	6.371122e-02,	-6.53820e-02	
884	6.918310e+07	6.181017e-02,	-6.52551e-02	
885	7.079458e+07	5.993727e-02,	-6.50800e-02	
886	7.244360e+07	5.809386e-02,	-6.48586e-02	
887	7.413102e+07	5.628118e-02,	-6.45927e-02	
888	7.585776e+07	5.450035e-02,	-6.42843e-02	
889	7.762471e+07	5.275240e-02,	-6.39352e-02	
890	7.943282e+07	5.103824e-02,	-6.35475e-02	
891	8.128305e+07	4.935868e-02,	-6.31230e-02	
892	8.317638e+07	4.771442e-02,	-6.26638e-02	
893	8.511380e+07	4.610606e-02,	-6.21718e-02	
894	8.709636e+07	4.453408e-02,	-6.16489e-02	
895	8.912509e+07	4.299890e-02,	-6.10970e-02	
896	9.120108e+07	4.150080e-02,	-6.05181e-02	
897	9.332543e+07	4.004001e-02,	-5.99141e-02	
898	9.549926e+07	3.861663e-02,	-5.92867e-02	
899	9.772372e+07	3.723071e-02,	-5.86378e-02	
900	1.000000e+08	3.588221e-02,	-5.79692e-02	
901	1.023293e+08	3.457100e-02,	-5.72826e-02	
902	1.047129e+08	3.329689e-02,	-5.65796e-02	
903	1.071519e+08	3.205963e-02,	-5.58620e-02	
904	1.096478e+08	3.085891e-02,	-5.51311e-02	
905	1.122018e+08	2.969434e-02,	-5.43887e-02	
906	1.148154e+08	2.856550e-02,	-5.36361e-02	
907	1.174898e+08	2.747191e-02,	-5.28747e-02	
908	1.202264e+08	2.641306e-02,	-5.21059e-02	
909	1.230269e+08	2.538839e-02,	-5.13309e-02	
910	1.258925e+08	2.439730e-02,	-5.05510e-02	
911	1.288250e+08	2.343917e-02,	-4.97674e-02	
912	1.318257e+08	2.251336e-02,	-4.89812e-02	
913	1.348963e+08	2.161918e-02,	-4.81933e-02	
914	1.380384e+08	2.075594e-02,	-4.74049e-02	
915	1.412538e+08	1.992294e-02,	-4.66168e-02	
916	1.445440e+08	1.911944e-02,	-4.58300e-02	
917	1.479108e+08	1.834473e-02,	-4.50452e-02	
918	1.513561e+08	1.759805e-02,	-4.42632e-02	
919	1.548817e+08	1.687866e-02,	-4.34848e-02	
920	1.584893e+08	1.618582e-02,	-4.27107e-02	
921	1.621810e+08	1.551878e-02,	-4.19413e-02	
922	1.659587e+08	1.487679e-02,	-4.11775e-02	
923	1.698244e+08	1.425910e-02,	-4.04196e-02	
924	1.737801e+08	1.366499e-02,	-3.96681e-02	

Index   frequency       vout                            
--------------------------------------------------------------------------------
925	1.778279e+08	1.309372e-02,	-3.89236e-02	
926	1.819701e+08	1.254458e-02,	-3.81865e-02	
927	1.862087e+08	1.201684e-02,	-3.74570e-02	
928	1.905461e+08	1.150982e-02,	-3.67356e-02	
929	1.949845e+08	1.102282e-02,	-3.60226e-02	
930	1.995262e+08	1.055516e-02,	-3.53182e-02	
931	2.041738e+08	1.010618e-02,	-3.46227e-02	
932	2.089296e+08	9.675240e-03,	-3.39363e-02	
933	2.137962e+08	9.261693e-03,	-3.32592e-02	
934	2.187762e+08	8.864924e-03,	-3.25916e-02	
935	2.238721e+08	8.484327e-03,	-3.19336e-02	
936	2.290868e+08	8.119312e-03,	-3.12852e-02	
937	2.344229e+08	7.769306e-03,	-3.06467e-02	
938	2.398833e+08	7.433750e-03,	-3.00181e-02	
939	2.454709e+08	7.112103e-03,	-2.93994e-02	
940	2.511886e+08	6.803836e-03,	-2.87907e-02	
941	2.570396e+08	6.508439e-03,	-2.81920e-02	
942	2.630268e+08	6.225417e-03,	-2.76034e-02	
943	2.691535e+08	5.954289e-03,	-2.70247e-02	
944	2.754229e+08	5.694592e-03,	-2.64560e-02	
945	2.818383e+08	5.445874e-03,	-2.58973e-02	
946	2.884032e+08	5.207703e-03,	-2.53485e-02	
947	2.951209e+08	4.979657e-03,	-2.48096e-02	
948	3.019952e+08	4.761332e-03,	-2.42806e-02	
949	3.090295e+08	4.552336e-03,	-2.37612e-02	
950	3.162278e+08	4.352290e-03,	-2.32515e-02	
951	3.235937e+08	4.160832e-03,	-2.27514e-02	
952	3.311311e+08	3.977609e-03,	-2.22608e-02	
953	3.388442e+08	3.802284e-03,	-2.17796e-02	
954	3.467369e+08	3.634532e-03,	-2.13077e-02	
955	3.548134e+08	3.474037e-03,	-2.08450e-02	
956	3.630781e+08	3.320500e-03,	-2.03913e-02	
957	3.715352e+08	3.173629e-03,	-1.99467e-02	
958	3.801894e+08	3.033145e-03,	-1.95108e-02	
959	3.890451e+08	2.898780e-03,	-1.90837e-02	
960	3.981072e+08	2.770276e-03,	-1.86653e-02	
961	4.073803e+08	2.647386e-03,	-1.82553e-02	
962	4.168694e+08	2.529871e-03,	-1.78536e-02	
963	4.265795e+08	2.417503e-03,	-1.74602e-02	
964	4.365158e+08	2.310063e-03,	-1.70749e-02	
965	4.466836e+08	2.207339e-03,	-1.66976e-02	
966	4.570882e+08	2.109131e-03,	-1.63281e-02	
967	4.677351e+08	2.015243e-03,	-1.59663e-02	
968	4.786301e+08	1.925491e-03,	-1.56121e-02	
969	4.897788e+08	1.839695e-03,	-1.52654e-02	
970	5.011872e+08	1.757686e-03,	-1.49259e-02	
971	5.128614e+08	1.679298e-03,	-1.45937e-02	
972	5.248075e+08	1.604376e-03,	-1.42686e-02	
973	5.370318e+08	1.532768e-03,	-1.39503e-02	
974	5.495409e+08	1.464331e-03,	-1.36389e-02	
975	5.623413e+08	1.398926e-03,	-1.33342e-02	
976	5.754399e+08	1.336421e-03,	-1.30360e-02	
977	5.888437e+08	1.276689e-03,	-1.27443e-02	
978	6.025596e+08	1.219609e-03,	-1.24589e-02	
979	6.165950e+08	1.165065e-03,	-1.21796e-02	
980	6.309573e+08	1.112945e-03,	-1.19065e-02	
981	6.456542e+08	1.063144e-03,	-1.16392e-02	
982	6.606934e+08	1.015558e-03,	-1.13779e-02	

Index   frequency       vout                            
--------------------------------------------------------------------------------
983	6.760830e+08	9.700914e-04,	-1.11222e-02	
984	6.918310e+08	9.266498e-04,	-1.08721e-02	
985	7.079458e+08	8.851442e-04,	-1.06275e-02	
986	7.244360e+08	8.454891e-04,	-1.03883e-02	
987	7.413102e+08	8.076027e-04,	-1.01544e-02	
988	7.585776e+08	7.714068e-04,	-9.92556e-03	
989	7.762471e+08	7.368267e-04,	-9.70183e-03	
990	7.943282e+08	7.037908e-04,	-9.48304e-03	
991	8.128305e+08	6.722307e-04,	-9.26909e-03	
992	8.317638e+08	6.420808e-04,	-9.05989e-03	
993	8.511380e+08	6.132786e-04,	-8.85533e-03	
994	8.709636e+08	5.857644e-04,	-8.65531e-03	
995	8.912509e+08	5.594807e-04,	-8.45975e-03	
996	9.120108e+08	5.343730e-04,	-8.26854e-03	
997	9.332543e+08	5.103889e-04,	-8.08159e-03	
998	9.549926e+08	4.874785e-04,	-7.89881e-03	
999	9.772372e+08	4.655938e-04,	-7.72012e-03	
1000	1.000000e+09	4.446892e-04,	-7.54542e-03	

Warning: command 'plot' is not available during batch simulation, ignored!
    You may use Gnuplot instead.


Warning: command 'plot' is not available during batch simulation, ignored!
    You may use Gnuplot instead.

Doing analysis at TEMP = 27.000000 and TNOM = 27.000000

Error: no data saved for A.C. Small signal analysis; analysis not run

No. of Data Rows : 1
doAnalyses: not found

run simulation(s) aborted
	Node                                  Voltage
	----                                  -------
	----	-------
	n_m1                             3.922734e+00
	vout                             9.054408e-02
	n_d3                             3.328068e+00
	n_d2                             3.328068e+00
	n_tail                           8.458424e-01
	vin_n                            2.500000e+00
	vin_p                            2.500000e+00
	vbias_n                          1.500000e+00
	vbias_p                          3.500000e+00
	vdd                              5.000000e+00

	Source	Current
	------	-------

	vdd#branch                       -1.98547e-03
	vbias_p#branch                   0.000000e+00
	vbias_n#branch                   0.000000e+00
	vin_p#branch                     0.000000e+00
	vin_n#branch                     0.000000e+00

 Capacitor models (Fixed capacitor)
      model                     C

        cap                     0
         cj                     0
       cjsw                     0
       defw                 1e-05
       defl                     0
     narrow                     0
      short                     0
        del                     0
        tc1                     0
        tc2                     0
         di                     0
      thick                     0
     bv_max                 1e+99

 Mos1 models (Level 1 MOSfet model with Meyer capacitance model)
      model                  pmos                  nmos              nmos_big

       type                  pmos                  nmos                  nmos
        vto                  -0.7                   0.7                   0.7
         kp                 4e-05               0.00012               0.00012
      gamma                   0.4                   0.4                   0.4
        phi                  0.65                  0.65                  0.65
     lambda                  0.02                  0.02                  0.02
         rd                     0                     0                     0
         rs                     0                     0                     0
        cbd                     0                     0                     0
        cbs                     0                     0                     0
         is                 1e-14                 1e-14                 1e-14
         pb                   0.8                   0.8                   0.8
       cgso                     0                     0                     0
       cgdo                     0                     0                     0
       cgbo                     0                     0                     0
        rsh                     0                     0                     0
         cj                     0                     0                     0
         mj                   0.5                   0.5                   0.5
       cjsw                     0                     0                     0
       mjsw                   0.5                   0.5                   0.5
         js                     0                     0                     0
        tox                     0                     0                     0
         ld                     0                     0                     0
         u0                     0                     0                     0
         fc                   0.5                   0.5                   0.5
       nsub                     0                     0                     0
        tpg                     0                     0                     0
        nss                     0                     0                     0
       tnom                    27                    27                    27
         kf <<NAN, error = 7>> <<NAN, error = 7>> <<NAN, error = 7>>
         af <<NAN, error = 7>> <<NAN, error = 7>> <<NAN, error = 7>>

 Resistor models (Simple linear resistor)
      model                     R

        rsh                     0
     narrow                     0
      short                     0
        tc1                     0
        tc2                     0
        tce                     0
       defw                 1e-05
          l                 1e-05
         kf                     0
         af                     0
          r                     0
     bv_max                 1e+99
         lf                     1
         wf                     1
         ef                     1

 Capacitor: Fixed capacitor
     device                    cl                    cb                    ca
      model                     C                     C                     C
capacitance               1.5e-11                 5e-13                 3e-12
      dtemp                     0                     0                     0
     bv_max                 1e+99                 1e+99                 1e+99
          i                     0                     0                     0
          p                     0                     0                     0

 Mos1: Level 1 MOSfet model with Meyer capacitance model
     device                    m1                    m6                    m5
      model                  pmos                  pmos                  pmos
         id           0.000392273           0.000421705           0.000585744
         is          -0.000392273          -0.000421705          -0.000585744
         ig                     0                     0                     0
         ib          -1.08727e-12          -4.91946e-12          -1.68193e-12
        vgs                   1.5                   1.5               1.67193
        vds               1.07727               4.90946               1.67193
        vbs                    -0                    -0                    -0
        von                  -0.7                  -0.7                  -0.7
      vdsat                  -0.8                  -0.8             -0.971932
         rs                     0                     0                     0
         rd                     0                     0                     0
         gm           0.000980684            0.00105426            0.00120532
        gds              7.68e-06              7.68e-06           1.13358e-05
        gmb           0.000243278            0.00026153           0.000299003
        cbd                     0                     0                     0
        cbs                     0                     0                     0
        cgs                     0                     0                     0
        cgd                     0                     0                     0
        cgb                     0                     0                     0
       cbd0                     0                     0                     0
     cbdsw0                     0                     0                     0
       cbs0                     0                     0                     0
     cbssw0                     0                     0                     0

 Mos1: Level 1 MOSfet model with Meyer capacitance model
     device                    m4                    m7                    m3
      model                  pmos                  nmos                  nmos
         id           0.000585744           0.000421705           0.000585744
         is          -0.000585744          -0.000421705          -0.000585744
         ig                     0                     0                     0
         ib          -1.68193e-12          -1.00544e-13          -4.19391e-12
        vgs               1.67193               3.32807               1.65416
        vds               1.67193             0.0905441               2.48223
        vbs                    -0                     0             -0.845842
        von                  -0.7                   0.7              0.866728
      vdsat             -0.971932               2.62807              0.787429
         rs                     0                     0                     0
         rd                     0                     0                     0
         gm            0.00120532           0.000163274            0.00148774
        gds           1.13358e-05            0.00458423           1.11608e-05
        gmb           0.000299003           4.05034e-05           0.000243284
        cbd                     0                     0                     0
        cbs                     0                     0                     0
        cgs                     0                     0                     0
        cgd                     0                     0                     0
        cgb                     0                     0                     0
       cbd0                     0                     0                     0
     cbdsw0                     0                     0                     0
       cbs0                     0                     0                     0
     cbssw0                     0                     0                     0

 Mos1: Level 1 MOSfet model with Meyer capacitance model
     device                    m2                    m8
      model                  nmos              nmos_big
         id           0.000585744            0.00117149
         is          -0.000585744           -0.00117149
         ig                     0                     0
         ib          -4.19391e-12          -8.55842e-13
        vgs               1.65416                   1.5
        vds               2.48223              0.845842
        vbs             -0.845842                     0
        von              0.866728                   0.7
      vdsat              0.787429                   0.8
         rs                     0                     0
         rd                     0                     0
         gm            0.00148774            0.00292872
        gds           1.11608e-05             2.304e-05
        gmb           0.000243284           0.000726526
        cbd                     0                     0
        cbs                     0                     0
        cgs                     0                     0
        cgd                     0                     0
        cgb                     0                     0
       cbd0                     0                     0
     cbdsw0                     0                     0
       cbs0                     0                     0
     cbssw0                     0                     0

 Resistor: Simple linear resistor
     device                rdummy
      model                     R
 resistance                 10000
         ac                 10000
      dtemp                     0
     bv_max                 1e+99
      noisy                     1
          i           0.000392273
          p            0.00153878

 Vsource: Independent voltage source
     device                 vin_n                 vin_p               vbias_n
         dc                   2.5                   2.5                   1.5
      acmag                     0                   0.5                     0
      pulse         -         -         -
        sin         -         -         -
        exp         -         -         -
        pwl         -         -         -
       sffm         -         -         -
         am         -         -         -
    trnoise         -         -         -
   trrandom         -         -         -
    portnum                     0                     0                     0
         z0                     0                     0                     0
        pwr                     0                     0                     0
       freq                     0                     0                     0
      phase                     0                     0                     0
          i                     0                     0                     0
          p                     0                     0                     0

 Vsource: Independent voltage source
     device               vbias_p                   vdd
         dc                   3.5                     5
      acmag                     0                     0
      pulse         -         -
        sin         -         -
        exp         -         -
        pwl         -         -
       sffm         -         -
         am         -         -
    trnoise         -         -
   trrandom         -         -
    portnum                     0                     0
         z0                     0                     0
        pwr                     0                     0
       freq                     0                     0
      phase                     0                     0
          i                     0           -0.00198547
          p                     0           -0.00992733


Total analysis time (seconds) = 0.005

Total elapsed time (seconds) = 0.251 

Total DRAM available = 16221.180 MB.
DRAM currently available = 2471.582 MB.
Maximum ngspice program size =   15.727 MB.
Current ngspice program size =   15.727 MB.

